<?xml version="1.0" encoding="UTF-8"?>
<!-- RSU marker and coverage area for StudyArea.
     Center: x=80.00, y=36.00
     Radius: R=150 m
     R=150 m is selected so the RSU covers the main urban mixing zone
     without unrealistically covering the entire corridor. -->
<additional>
    <poi id="RSU0" x="80.00" y="36.00" color="0,0,255" layer="10" type="rsu" width="6" height="6"/>
    <poly id="coverage_R150" color="0,0,255,40" fill="1" layer="-5" shape="230.00,36.00 229.43,49.07 227.72,62.05 224.89,74.82 220.95,87.30 215.95,99.39 209.90,111.00 202.87,122.04 194.91,132.42 186.07,142.07 176.42,150.91 166.04,158.87 155.00,165.90 143.39,171.95 131.30,176.95 118.82,180.89 106.05,183.72 93.07,185.43 80.00,186.00 66.93,185.43 53.95,183.72 41.18,180.89 28.70,176.95 16.61,171.95 5.00,165.90 -6.04,158.87 -16.42,150.91 -26.07,142.07 -34.91,132.42 -42.87,122.04 -49.90,111.00 -55.95,99.39 -60.95,87.30 -64.89,74.82 -67.72,62.05 -69.43,49.07 -70.00,36.00 -69.43,22.93 -67.72,9.95 -64.89,-2.82 -60.95,-15.30 -55.95,-27.39 -49.90,-39.00 -42.87,-50.04 -34.91,-60.42 -26.07,-70.07 -16.42,-78.91 -6.04,-86.87 5.00,-93.90 16.61,-99.95 28.70,-104.95 41.18,-108.89 53.95,-111.72 66.93,-113.43 80.00,-114.00 93.07,-113.43 106.05,-111.72 118.82,-108.89 131.30,-104.95 143.39,-99.95 155.00,-93.90 166.04,-86.87 176.42,-78.91 186.07,-70.07 194.91,-60.42 202.87,-50.04 209.90,-39.00 215.95,-27.39 220.95,-15.30 224.89,-2.82 227.72,9.95 229.43,22.93"/>
</additional>
